examples/test_perturbation_outputs/pert_min_cost/pglib_opf_case200_tamu.m
%% MATPOWER Case Format : Version 2
function mpc = pglib_opf_case200_tamu
mpc.version = '2';

%%-----  Power Flow Data  -----%%
%% system MVA base
mpc.baseMVA = 100.0;
%% bus data
%    bus_i    type    Pd    Qd    Gs    Bs    area    Vm    Va    baseKV    zone    Vmax    Vmin
mpc.bus = [
	1	1	0.0	0.0	0.0	0.0	1	1.0	0.0	115.0	2	1.1	0.9				
	2	1	7.39	2.1	0.0	0.0	1	1.0	0.0	115.0	2	1.1	0.9				
	3	1	0.0	0.0	0.0	0.0	1	1.0	0.0	115.0	4	1.1	0.9				
	4	1	1.7000000000000002	0.48	0.0	0.0	1	1.0	0.0	115.0	4	1.1	0.9				
	5	1	0.0	0.0	0.0	0.0	1	1.0	0.0	115.0	6	1.1	0.9				
	6	1	7.95	2.26	0.0	0.0	1	1.0	0.0	115.0	6	1.1	0.9				
	7	1	0.0	0.0	0.0	0.0	1	1.0	0.0	115.0	2	1.1	0.9				
	8	1	23.74	6.77	0.0	0.0	1	1.0	0.0	115.0	2	1.1	0.9				
	9	1	0.0	0.0	0.0	0.0	1	1.0	0.0	115.0	2	1.1	0.9				
	10	1	42.68	12.16	0.0	0.0	1	1.0	0.0	115.0	2	1.1	0.9				
	11	1	0.0	0.0	0.0	0.0	1	1.0	0.0	115.0	4	1.1	0.9				
	12	1	0.3	0.09	0.0	0.0	1	1.0	0.0	115.0	4	1.1	0.9				
	13	1	2.52	0.72	0.0	0.0	1	1.0	0.0	115.0	4	1.1	0.9				
	14	1	0.0	0.0	0.0	0.0	1	1.0	0.0	230.0	4	1.1	0.9				
	15	1	0.0	0.0	0.0	30.0	1	1.0	0.0	115.0	4	1.1	0.9				
	16	1	44.76	12.76	0.0	0.0	1	1.0	0.0	115.0	4	1.1	0.9				
	17	1	0.0	0.0	0.0	0.0	1	1.0	0.0	115.0	4	1.1	0.9				
	18	1	0.71	0.2	0.0	0.0	1	1.0	0.0	115.0	4	1.1	0.9				
	19	1	0.77	0.22	0.0	0.0	1	1.0	0.0	115.0	4	1.1	0.9				
	20	1	1.13	0.32	0.0	0.0	1	1.0	0.0	115.0	4	1.1	0.9				
	21	1	4.61	1.31	0.0	0.0	1	1.0	0.0	115.0	4	1.1	0.9				
	22	1	0.0	0.0	0.0	0.0	1	1.0	0.0	115.0	4	1.1	0.9				
	23	1	1.41	0.4	0.0	0.0	1	1.0	0.0	115.0	4	1.1	0.9				
	24	1	2.4	0.68	0.0	0.0	1	1.0	0.0	115.0	4	1.1	0.9				
	25	1	0.0	0.0	0.0	0.0	1	1.0	0.0	115.0	6	1.1	0.9				
	26	1	1.35	0.39	0.0	0.0	1	1.0	0.0	115.0	6	1.1	0.9				
	27	1	0.0	0.0	0.0	0.0	1	1.0	0.0	115.0	4	1.1	0.9				
	28	1	2.33	0.67	0.0	0.0	1	1.0	0.0	115.0	4	1.1	0.9				
	29	1	0.0	0.0	0.0	0.0	1	1.0	0.0	115.0	2	1.1	0.9				
	30	1	59.089999999999996	16.84	0.0	0.0	1	1.0	0.0	115.0	2	1.1	0.9				
	31	1	0.0	0.0	0.0	0.0	1	1.0	0.0	115.0	7	1.1	0.9				
	32	1	0.51	0.15	0.0	0.0	1	1.0	0.0	115.0	7	1.1	0.9				
	33	1	6.4399999999999995	1.8399999999999999	0.0	0.0	1	1.0	0.0	115.0	7	1.1	0.9				
	34	1	0.0	0.0	0.0	0.0	1	1.0	0.0	115.0	4	1.1	0.9				
	35	1	20.76	5.92	0.0	0.0	1	1.0	0.0	115.0	4	1.1	0.9				
	36	1	0.0	0.0	0.0	0.0	1	1.0	0.0	115.0	7	1.1	0.9				
	37	1	3.5699999999999994	1.02	0.0	0.0	1	1.0	0.0	115.0	7	1.1	0.9				
	38	1	29.81	8.5	0.0	0.0	1	1.0	0.0	115.0	7	1.1	0.9				
	39	1	7.41	2.11	0.0	0.0	1	1.0	0.0	115.0	4	1.1	0.9				
	40	1	2.04	0.58	0.0	0.0	1	1.0	0.0	115.0	4	1.1	0.9				
	41	1	38.34	10.93	0.0	0.0	1	1.0	0.0	115.0	5	1.1	0.9				
	42	1	10.62	3.03	0.0	0.0	1	1.0	0.0	115.0	4	1.1	0.9				
	43	1	2.09	0.59	0.0	0.0	1	1.0	0.0	115.0	2	1.1	0.9				
	44	1	4.15	1.18	0.0	0.0	1	1.0	0.0	115.0	4	1.1	0.9				
	45	1	0.0	0.0	0.0	0.0	1	1.0	0.0	230.0	7	1.1	0.9				
	46	1	6.34	1.81	0.0	0.0	1	1.0	0.0	115.0	7	1.1	0.9				
	47	1	1.54	0.44	0.0	0.0	1	1.0	0.0	115.0	4	1.1	0.9				
	48	1	1.82	0.52	0.0	0.0	1	1.0	0.0	115.0	6	1.1	0.9				
	49	2	0.0	0.0	0.0	0.0	1	1.0	0.0	13.8	6	1.1	0.9				
	50	2	0.0	0.0	0.0	0.0	1	1.0	0.0	13.8	6	1.1	0.9				
	51	2	0.0	0.0	0.0	0.0	1	1.0	0.0	13.8	6	1.1	0.9				
	52	2	0.0	0.0	0.0	0.0	1	1.0	0.0	13.8	6	1.1	0.9				
	53	2	0.0	0.0	0.0	0.0	1	1.0	0.0	13.8	6	1.1	0.9				
	54	1	2.66	0.76	0.0	0.0	1	1.0	0.0	115.0	4	1.1	0.9				
	55	1	0.0	0.0	0.0	0.0	1	1.0	0.0	230.0	7	1.1	0.9				
	56	1	1.31	0.37	0.0	0.0	1	1.0	0.0	115.0	7	1.1	0.9				
	57	1	2.82	0.8	0.0	0.0	1	1.0	0.0	115.0	4	1.1	0.9				
	58	1	4.23	1.21	0.0	0.0	1	1.0	0.0	115.0	7	1.1	0.9				
	59	1	4.73	1.35	0.0	0.0	1	1.0	0.0	115.0	2	1.1	0.9				
	60	1	3.8	1.08	0.0	0.0	1	1.0	0.0	115.0	2	1.1	0.9				
	61	1	20.55	5.86	0.0	0.0	1	1.0	0.0	115.0	7	1.1	0.9				
	62	1	21.41	6.1	0.0	0.0	1	1.0	0.0	115.0	4	1.1	0.9				
	63	1	7.980000000000001	2.27	0.0	0.0	1	1.0	0.0	115.0	4	1.1	0.9				
	64	1	0.0	0.0	0.0	0.0	1	1.0	0.0	115.0	6	1.1	0.9				
	65	2	0.0	0.0	0.0	0.0	1	1.0	0.0	13.8	6	1.1	0.9				
	66	1	0.0	0.0	0.0	0.0	1	1.0	0.0	115.0	4	1.1	0.9				
	67	2	0.0	0.0	0.0	0.0	1	1.0	0.0	13.8	4	1.1	0.9				
	68	2	0.0	0.0	0.0	0.0	1	1.0	0.0	13.8	4	1.1	0.9				
	69	2	0.0	0.0	0.0	0.0	1	1.0	0.0	13.8	4	1.1	0.9				
	70	2	0.0	0.0	0.0	0.0	1	1.0	0.0	13.8	4	1.1	0.9				
	71	2	0.0	0.0	0.0	0.0	1	1.0	0.0	13.8	4	1.1	0.9				
	72	2	0.0	0.0	0.0	0.0	1	1.0	0.0	13.8	4	1.1	0.9				
	73	2	0.0	0.0	0.0	0.0	1	1.0	0.0	13.8	4	1.1	0.9				
	74	1	18.76	5.35	0.0	0.0	1	1.0	0.0	115.0	6	1.1	0.9				
	75	1	3.6000000000000005	1.03	0.0	0.0	1	1.0	0.0	115.0	2	1.1	0.9				
	76	2	0.0	0.0	0.0	0.0	1	1.0	0.0	13.8	2	1.1	0.9				
	77	2	0.0	0.0	0.0	0.0	1	1.0	0.0	13.8	2	1.1	0.9				
	78	1	0.0	0.0	0.0	0.0	1	1.0	0.0	13.8	2	1.1	0.9				
	79	1	0.0	0.0	0.0	0.0	1	1.0	0.0	13.8	2	1.1	0.9				
	80	1	1.48	0.42	0.0	0.0	1	1.0	0.0	115.0	5	1.1	0.9				
	81	1	0.0	0.0	0.0	0.0	1	1.0	0.0	230.0	6	1.1	0.9				
	82	1	7.6	2.17	0.0	0.0	1	1.0	0.0	115.0	6	1.1	0.9				
	83	1	3.1400000000000006	0.89	0.0	0.0	1	1.0	0.0	115.0	7	1.1	0.9				
	84	1	3.75	1.07	0.0	0.0	1	1.0	0.0	115.0	2	1.1	0.9				
	85	1	4.83	1.38	0.0	0.0	1	1.0	0.0	115.0	4	1.1	0.9				
	86	1	8.25	2.35	0.0	0.0	1	1.0	0.0	115.0	2	1.1	0.9				
	87	1	0.0	0.0	0.0	0.0	1	1.0	0.0	230.0	3	1.1	0.9				
	88	1	49.34	14.06	0.0	0.0	1	1.0	0.0	115.0	3	1.1	0.9				
	89	1	62.85000000000001	17.91	0.0	0.0	1	1.0	0.0	115.0	7	1.1	0.9				
	90	2	0.0	0.0	0.0	0.0	1	1.0	0.0	13.8	7	1.1	0.9				
	91	2	0.0	0.0	0.0	0.0	1	1.0	0.0	13.8	7	1.1	0.9				
	92	1	0.0	0.0	0.0	0.0	1	1.0	0.0	13.8	7	1.1	0.9				
	93	1	3.06	0.8699999999999999	0.0	0.0	1	1.0	0.0	115.0	4	1.1	0.9				
	94	2	0.0	0.0	0.0	0.0	1	1.0	0.0	13.8	4	1.1	0.9				
	95	1	3.0	0.8500000000000001	0.0	30.0	1	1.0	0.0	115.0	7	1.1	0.9				
	96	1	2.96	0.84	0.0	0.0	1	1.0	0.0	115.0	7	1.1	0.9				
	97	1	7.33	2.09	0.0	0.0	1	1.0	0.0	115.0	2	1.1	0.9				
	98	1	0.0	0.0	0.0	0.0	1	1.0	0.0	230.0	2	1.1	0.9				
	99	1	12.17	3.47	0.0	0.0	1	1.0	0.0	115.0	2	1.1	0.9				
	100	1	37.39	10.66	0.0	80.0	1	1.0	0.0	115.0	5	1.1	0.9				
	101	1	0.52	0.15	0.0	0.0	1	1.0	0.0	115.0	2	1.1	0.9				
	102	1	0.0	0.0	0.0	0.0	1	1.0	0.0	230.0	7	1.1	0.9				
	103	1	0.0	0.0	0.0	0.0	1	1.0	0.0	115.0	7	1.1	0.9				
	104	2	0.0	0.0	0.0	0.0	1	1.0	0.0	13.8	7	1.1	0.9				
	105	2	0.0	0.0	0.0	0.0	1	1.0	0.0	13.8	7	1.1	0.9				
	106	1	2.06	0.59	0.0	0.0	1	1.0	0.0	115.0	7	1.1	0.9				
	107	1	52.56000000000001	14.980000000000002	0.0	0.0	1	1.0	0.0	115.0	7	1.1	0.9				
	108	1	9.42	2.68	0.0	0.0	1	1.0	0.0	115.0	2	1.1	0.9				
	109	1	5.16	1.47	0.0	0.0	1	1.0	0.0	115.0	4	1.1	0.9				
	110	1	10.86	3.09	0.0	0.0	1	1.0	0.0	115.0	2	1.1	0.9				
	111	1	8.82	2.51	0.0	0.0	1	1.0	0.0	115.0	5	1.1	0.9				
	112	1	0.0	0.0	0.0	0.0	1	1.0	0.0	230.0	7	1.1	0.9				
	113	1	0.0	0.0	0.0	0.0	1	1.0	0.0	115.0	7	1.1	0.9				
	114	2	0.0	0.0	0.0	0.0	1	1.0	0.0	13.8	7	1.1	0.9				
	115	2	0.0	0.0	0.0	0.0	1	1.0	0.0	13.8	7	1.1	0.9				
	116	1	0.0	0.0	0.0	0.0	1	1.0	0.0	230.0	2	1.1	0.9				
	117	1	34.08	9.71	0.0	0.0	1	1.0	0.0	115.0	2	1.1	0.9				
	118	1	3.94	1.12	0.0	0.0	1	1.0	0.0	115.0	2	1.1	0.9				
	119	1	17.55	5.0	0.0	0.0	1	1.0	0.0	115.0	2	1.1	0.9				
	120	1	1.8000000000000003	0.51	0.0	0.0	1	1.0	0.0	115.0	4	1.1	0.9				
	121	1	0.0	0.0	0.0	0.0	1	1.0	0.0	230.0	7	1.1	0.9				
	122	1	15.439999999999998	4.4	0.0	0.0	1	1.0	0.0	115.0	7	1.1	0.9				
	123	1	0.0	0.0	0.0	0.0	1	1.0	0.0	230.0	2	1.1	0.9				
	124	1	0.0	0.0	0.0	0.0	1	1.0	0.0	115.0	2	1.1	0.9				
	125	2	0.0	0.0	0.0	0.0	1	1.0	0.0	13.8	2	1.1	0.9				
	126	2	0.0	0.0	0.0	0.0	1	1.0	0.0	13.8	2	1.1	0.9				
	127	2	0.0	0.0	0.0	0.0	1	1.0	0.0	13.8	2	1.1	0.9				
	128	1	0.0	0.0	0.0	0.0	1	1.0	0.0	230.0	7	1.1	0.9				
	129	1	77.24	22.01	0.0	0.0	1	1.0	0.0	115.0	7	1.1	0.9				
	130	1	4.4	1.25	0.0	0.0	1	1.0	0.0	115.0	7	1.1	0.9				
	131	1	30.25	8.62	0.0	0.0	1	1.0	0.0	115.0	2	1.1	0.9				
	132	1	26.96	7.68	0.0	0.0	1	1.0	0.0	115.0	2	1.1	0.9				
	133	1	0.0	0.0	0.0	0.0	1	1.0	0.0	230.0	2	1.1	0.9				
	134	1	0.0	0.0	0.0	0.0	1	1.0	0.0	115.0	2	1.1	0.9				
	135	2	0.0	0.0	0.0	0.0	1	1.0	0.0	13.8	2	1.1	0.9				
	136	2	0.0	0.0	0.0	0.0	1	1.0	0.0	13.8	2	1.1	0.9				
	137	1	1.16	0.33	0.0	0.0	1	1.0	0.0	115.0	4	1.1	0.9				
	138	1	2.09	0.6	0.0	0.0	1	1.0	0.0	115.0	6	1.1	0.9				
	139	1	6.84	1.95	0.0	0.0	1	1.0	0.0	115.0	2	1.1	0.9				
	140	1	8.21	2.34	0.0	0.0	1	1.0	0.0	115.0	2	1.1	0.9				
	141	1	1.42	0.4099999999999999	0.0	0.0	1	1.0	0.0	115.0	2	1.1	0.9				
	142	1	37.26	10.62	0.0	0.0	1	1.0	0.0	115.0	2	1.1	0.9				
	143	1	26.780000000000005	7.629999999999999	0.0	0.0	1	1.0	0.0	115.0	5	1.1	0.9				
	144	1	9.05	2.58	0.0	0.0	1	1.0	0.0	115.0	2	1.1	0.9				
	145	1	17.54	5.0	0.0	0.0	1	1.0	0.0	115.0	3	1.1	0.9				
	146	1	0.0	0.0	0.0	0.0	1	1.0	0.0	115.0	7	1.1	0.9				
	147	2	0.0	0.0	0.0	0.0	1	1.0	0.0	13.8	7	1.1	0.9				
	148	1	32.02	9.13	0.0	0.0	1	1.0	0.0	115.0	2	1.1	0.9				
	149	1	0.0	0.0	0.0	0.0	1	1.0	0.0	230.0	3	1.1	0.9				
	150	1	0.0	0.0	0.0	0.0	1	1.0	0.0	115.0	3	1.1	0.9				
	151	2	0.0	0.0	0.0	0.0	1	1.0	0.0	13.8	3	1.1	0.9				
	152	2	0.0	0.0	0.0	0.0	1	1.0	0.0	13.8	3	1.1	0.9				
	153	2	0.0	0.0	0.0	0.0	1	1.0	0.0	13.8	3	1.1	0.9				
	154	2	0.0	0.0	0.0	0.0	1	1.0	0.0	13.8	3	1.1	0.9				
	155	2	0.0	0.0	0.0	0.0	1	1.0	0.0	13.8	3	1.1	0.9				
	156	1	0.0	0.0	0.0	0.0	1	1.0	0.0	230.0	2	1.1	0.9				
	157	1	14.760000000000002	4.21	0.0	0.0	1	1.0	0.0	115.0	2	1.1	0.9				
	158	1	8.97	2.56	0.0	0.0	1	1.0	0.0	115.0	4	1.1	0.9				
	159	1	1.39	0.4	0.0	0.0	1	1.0	0.0	115.0	4	1.1	0.9				
	160	1	0.0	0.0	0.0	0.0	1	1.0	0.0	115.0	4	1.1	0.9				
	161	1	0.0	0.0	0.0	0.0	1	1.0	0.0	13.8	4	1.1	0.9				
	162	1	1.45	0.4099999999999999	0.0	0.0	1	1.0	0.0	115.0	2	1.1	0.9				
	163	1	45.8	13.05	0.0	0.0	1	1.0	0.0	115.0	5	1.1	0.9				
	164	1	0.0	0.0	0.0	0.0	1	1.0	0.0	13.8	5	1.1	0.9				
	165	1	0.0	0.0	0.0	0.0	1	1.0	0.0	13.8	5	1.1	0.9				
	166	1	0.0	0.0	0.0	0.0	1	1.0	0.0	13.8	5	1.1	0.9				
	167	2	0.0	0.0	0.0	0.0	1	1.0	0.0	13.8	5	1.1	0.9				
	168	1	0.0	0.0	0.0	0.0	1	1.0	0.0	13.8	5	1.1	0.9				
	169	1	0.0	0.0	0.0	0.0	1	1.0	0.0	13.8	5	1.1	0.9				
	170	2	0.0	0.0	0.0	0.0	1	1.0	0.0	13.8	5	1.1	0.9				
	171	1	7.9399999999999995	2.26	0.0	0.0	1	1.0	0.0	115.0	6	1.1	0.9				
	172	1	5.38	1.53	0.0	0.0	1	1.0	0.0	115.0	5	1.1	0.9				
	173	1	8.71	2.48	0.0	0.0	1	1.0	0.0	115.0	5	1.1	0.9				
	174	1	2.77	0.79	0.0	0.0	1	1.0	0.0	115.0	5	1.1	0.9				
	175	1	7.31	2.08	0.0	0.0	1	1.0	0.0	115.0	5	1.1	0.9				
	176	1	19.01	5.42	0.0	0.0	1	1.0	0.0	115.0	3	1.1	0.9				
	177	1	11.29	3.2199999999999998	0.0	0.0	1	1.0	0.0	115.0	7	1.1	0.9				
	178	1	0.0	0.0	0.0	0.0	1	1.0	0.0	230.0	5	1.1	0.9				
	179	1	23.61	6.7299999999999995	0.0	0.0	1	1.0	0.0	115.0	5	1.1	0.9				
	180	1	7.739999999999999	2.21	0.0	0.0	1	1.0	0.0	115.0	5	1.1	0.9				
	181	1	47.98	13.669999999999998	0.0	0.0	1	1.0	0.0	115.0	4	1.1	0.9				
	182	2	0.0	0.0	0.0	0.0	1	1.0	0.0	13.8	4	1.1	0.9				
	183	2	0.0	0.0	0.0	0.0	1	1.0	0.0	13.8	4	1.1	0.9				
	184	1	10.69	3.05	0.0	0.0	1	1.0	0.0	115.0	5	1.1	0.9				
	185	1	10.79	3.07	0.0	0.0	1	1.0	0.0	115.0	3	1.1	0.9				
	186	1	2.1	0.6	0.0	0.0	1	1.0	0.0	115.0	2	1.1	0.9				
	187	1	0.0	0.0	0.0	0.0	1	1.0	0.0	230.0	7	1.1	0.9				
	188	1	0.0	0.0	0.0	0.0	1	1.0	0.0	115.0	7	1.1	0.9				
	189	3	0.0	0.0	0.0	0.0	1	1.0	0.0	13.8	7	1.1	0.9				
	190	1	16.79	4.78	0.0	0.0	1	1.0	0.0	115.0	6	1.1	0.9				
	191	1	7.23	2.06	0.0	0.0	1	1.0	0.0	115.0	5	1.1	0.9				
	192	1	52.739999999999995	15.03	0.0	0.0	1	1.0	0.0	115.0	7	1.1	0.9				
	193	1	21.99	6.27	0.0	0.0	1	1.0	0.0	115.0	2	1.1	0.9				
	194	1	37.57	10.71	0.0	50.0	1	1.0	0.0	115.0	3	1.1	0.9				
	195	1	0.0	0.0	0.0	0.0	1	1.0	0.0	115.0	6	1.1	0.9				
	196	1	0.0	0.0	0.0	0.0	1	1.0	0.0	13.8	6	1.1	0.9				
	197	1	0.0	0.0	0.0	0.0	1	1.0	0.0	13.8	6	1.1	0.9				
	198	1	5.37	1.53	0.0	0.0	1	1.0	0.0	115.0	2	1.1	0.9				
	199	1	4.26	1.21	0.0	0.0	1	1.0	0.0	115.0	6	1.1	0.9				
	200	1	9.34	2.66	0.0	0.0	1	1.0	0.0	115.0	4	1.1	0.9				
];

%% generator data
%    bus    Pg    Qg    Qmax    Qmin    Vg    mBase    status    Pmax    Pmin    Pc1    Pc2    Qc1min    Qc1max    Qc2min    Qc2max    ramp_agc    ramp_10    ramp_30    ramp_q    apf
mpc.gen = [
	49	2.945	0.78	2.11	-0.55	1.0	5.44	1	4.53	1.36															
	50	2.945	0.78	2.11	-0.55	1.0	5.44	1	4.53	1.36															
	51	2.945	0.78	2.11	-0.55	1.0	5.44	1	4.53	1.36															
	52	2.945	0.78	2.11	-0.55	1.0	5.44	1	4.53	1.36															
	53	5.895	1.56	4.23	-1.11	1.0	10.88	1	9.07	2.72															
	65	86.5	5.19	32.04	-21.66	1.0	180.48	1	86.5	86.5															
	67	3.055	0.8100000000000002	2.19	-0.57	1.0	5.64	1	4.7	1.41															
	68	18.15	4.8	13.01	-3.4099999999999997	1.0	33.5	1	27.92	8.38															
	69	18.15	4.8	13.01	-3.4099999999999997	1.0	33.5	1	27.92	8.38															
	70	18.15	4.8	13.01	-3.4099999999999997	1.0	33.5	1	27.92	8.38															
	71	18.15	4.8	13.01	-3.4099999999999997	1.0	33.5	1	27.92	8.38															
	72	18.15	4.8	13.01	-3.4099999999999997	1.0	33.5	1	27.92	8.38															
	73	18.15	4.8	13.01	-3.4099999999999997	1.0	33.5	1	27.92	8.38															
	76	2.6	0.8	2.04	-0.44	1.0	4.8	1	4.0	1.2															
	77	1.56	0.475	1.22	-0.27	1.0	2.88	1	2.4	0.72															
	78	0.0	0.0	9.16	-2.0	1.0	21.6	0	18.0	5.4															
	79	0.0	0.0	9.16	-2.0	1.0	21.6	0	18.0	5.4															
	90	2.08	0.635	1.63	-0.36	1.0	3.84	1	3.2	0.96															
	91	3.25	1.0	2.55	-0.55	1.0	6.0	1	5.0	1.5															
	92	0.0	0.0	3.2099999999999995	-0.7	1.0	7.56	0	6.3	1.8900000000000001															
	94	11.7	3.095	8.39	-2.2	1.0	21.6	1	18.0	5.4															
	104	67.6	3.415	21.09	-14.26	1.0	118.8	1	67.6	67.6															
	105	154.8	6.83	42.17	-28.51	1.0	237.6	1	154.8	154.8															
	114	1.4	0.06	0.36	-0.24	1.0	2.04	1	1.4	1.4															
	115	133.5	5.175	31.95	-21.6	1.0	180.0	1	133.5	133.5															
	125	84.535	22.365	60.6	-15.869999999999997	1.0	156.06	1	130.05	39.02															
	126	84.535	22.365	60.6	-15.869999999999997	1.0	156.06	1	130.05	39.02															
	127	84.535	22.365	60.6	-15.869999999999997	1.0	156.06	1	130.05	39.02															
	135	290.16	76.78	208.02	-54.459999999999994	1.0	535.68	1	446.4	133.92															
	136	290.16	76.78	208.02	-54.459999999999994	1.0	535.68	1	446.4	133.92															
	147	92.4	3.47	21.41	-14.469999999999999	1.0	120.6	1	92.4	92.4															
	151	3.51	0.93	2.52	-0.66	1.0	6.48	1	5.4	1.6200000000000003															
	152	50.195	13.285	35.99	-9.42	1.0	92.67	1	77.22	23.17															
	153	50.195	13.285	35.99	-9.42	1.0	92.67	1	77.22	23.17															
	154	50.195	13.285	35.99	-9.42	1.0	92.67	1	77.22	23.17															
	155	50.195	13.285	35.99	-9.42	1.0	92.67	1	77.22	23.17															
	161	0.0	0.0	70.55	-15.380000000000003	1.0	166.32	0	138.6	41.58															
	164	0.0	0.0	6.11	-1.33	1.0	14.4	0	12.0	3.6000000000000005															
	165	0.0	0.0	13.23	-2.89	1.0	31.2	0	26.0	7.8															
	166	0.0	0.0	4.78	-1.04	1.0	11.28	0	9.4	2.82															
	167	6.11	1.87	4.78	-1.04	1.0	11.28	1	9.4	2.82															
	168	0.0	0.0	4.78	-1.04	1.0	11.28	0	9.4	2.82															
	169	0.0	0.0	4.78	-1.04	1.0	11.28	0	9.4	2.82															
	170	6.11	1.87	4.78	-1.04	1.0	11.28	1	9.4	2.82															
	182	11.375	3.01	8.16	-2.14	1.0	21.0	1	17.5	5.25															
	183	17.29	4.575	12.4	-3.25	1.0	31.92	1	26.6	7.980000000000001															
	189	369.95	81.39	209.45	-46.67	1.0	682.98	1	569.15	170.75															
	196	0.0	0.0	34.36	-7.490000000000001	1.0	81.0	0	67.5	20.25															
	197	0.0	0.0	34.36	-7.490000000000001	1.0	81.0	0	67.5	20.25															
];

%% branch data
%    f_bus    t_bus    r    x    b    rateA    rateB    rateC    ratio    angle    status    angmin    angmax
mpc.branch = [
	2	1	0.000673	0.003339	0.0	100.0	100.0	100.0	0	0	1	-29.999999999999996	29.999999999999996								
	1	119	0.018542	0.119758	0.02285	221.1	221.1	221.1	0	0	1	-29.999999999999996	29.999999999999996								
	124	1	0.005615	0.036268	0.00692	221.1	221.1	221.1	0	0	1	-29.999999999999996	29.999999999999996								
	193	1	0.004258	0.027501	0.00525	221.1	221.1	221.1	0	0	1	-29.999999999999996	29.999999999999996								
	4	3	0.000573	0.003303	0.0	100.0	100.0	100.0	0	0	1	-29.999999999999996	29.999999999999996								
	57	3	0.008505	0.058098	0.00988	221.1	221.1	221.1	0	0	1	-29.999999999999996	29.999999999999996								
	3	137	0.005889	0.038035	0.00726	221.1	221.1	221.1	0	0	1	-29.999999999999996	29.999999999999996								
	6	5	0.000694	0.003337	0.0	100.0	100.0	100.0	0	0	1	-29.999999999999996	29.999999999999996								
	48	5	0.006246	0.043513	0.00711	221.1	221.1	221.1	0	0	1	-29.999999999999996	29.999999999999996								
	5	64	0.007877	0.054875	0.00897	221.1	221.1	221.1	0	0	1	-29.999999999999996	29.999999999999996								
	8	7	0.000634	0.003189	0.0	100.0	100.0	100.0	0	0	1	-29.999999999999996	29.999999999999996								
	7	86	0.003756	0.024259	0.00463	221.1	221.1	221.1	0	0	1	-29.999999999999996	29.999999999999996								
	7	101	0.003597	0.023232	0.00443	221.1	221.1	221.1	0	0	1	-29.999999999999996	29.999999999999996								
	7	148	0.008667	0.05598	0.01068	221.1	221.1	221.1	0	0	1	-29.999999999999996	29.999999999999996								
	10	9	0.000585	0.003967	0.0	100.0	100.0	100.0	0	0	1	-29.999999999999996	29.999999999999996								
	9	124	0.008069	0.055123	0.00938	221.1	221.1	221.1	0	0	1	-29.999999999999996	29.999999999999996								
	131	9	0.004139	0.026732	0.0051	221.1	221.1	221.1	0	0	1	-29.999999999999996	29.999999999999996								
	9	141	0.004446	0.03097	0.00506	221.1	221.1	221.1	0	0	1	-29.999999999999996	29.999999999999996								
	9	193	0.003695	0.025244	0.00429	221.1	221.1	221.1	0	0	1	-29.999999999999996	29.999999999999996								
	12	11	0.000534	0.003533	0.0	100.0	100.0	100.0	0	0	1	-29.999999999999996	29.999999999999996								
	13	11	0.000619	0.003606	0.0	100.0	100.0	100.0	0	0	1	-29.999999999999996	29.999999999999996								
	11	15	0.010408	0.06722	0.01282	221.1	221.1	221.1	0	0	1	-29.999999999999996	29.999999999999996								
	11	93	0.018394	0.128141	0.02095	221.1	221.1	221.1	0	0	1	-29.999999999999996	29.999999999999996								
	158	11	0.008519	0.058199	0.0099	221.1	221.1	221.1	0	0	1	-29.999999999999996	29.999999999999996								
	15	14	0.000637	0.027526	0.0	300.0	300.0	300.0	1.0	0.0	1	-29.999999999999996	29.999999999999996								
	14	121	0.007013	0.050098	0.09134	402.36	402.36	402.36	0	0	1	-29.999999999999996	29.999999999999996								
	14	149	0.009133	0.065244	0.11895	402.36	402.36	402.36	0	0	1	-29.999999999999996	29.999999999999996								
	16	15	0.000553	0.0032	0.0	100.0	100.0	100.0	0	0	1	-29.999999999999996	29.999999999999996								
	18	17	0.000503	0.003926	0.0	100.0	100.0	100.0	0	0	1	-29.999999999999996	29.999999999999996								
	19	17	0.000514	0.003079	0.0	100.0	100.0	100.0	0	0	1	-29.999999999999996	29.999999999999996								
	20	17	0.000623	0.003339	0.0	100.0	100.0	100.0	0	0	1	-29.999999999999996	29.999999999999996								
	21	17	0.00062	0.00394	0.0	100.0	100.0	100.0	0	0	1	-29.999999999999996	29.999999999999996								
	109	17	0.009789	0.068198	0.01115	221.1	221.1	221.1	0	0	1	-29.999999999999996	29.999999999999996								
	17	120	0.010316	0.070473	0.01199	221.1	221.1	221.1	0	0	1	-29.999999999999996	29.999999999999996								
	23	22	0.000616	0.003222	0.0	100.0	100.0	100.0	0	0	1	-29.999999999999996	29.999999999999996								
	24	22	0.000687	0.003067	0.0	100.0	100.0	100.0	0	0	1	-29.999999999999996	29.999999999999996								
	22	27	0.011379	0.073494	0.01402	221.1	221.1	221.1	0	0	1	-29.999999999999996	29.999999999999996								
	158	22	0.012701	0.086769	0.01476	221.1	221.1	221.1	0	0	1	-29.999999999999996	29.999999999999996								
	26	25	0.00061	0.003071	0.0	100.0	100.0	100.0	0	0	1	-29.999999999999996	29.999999999999996								
	25	64	0.007643	0.053244	0.0087	221.1	221.1	221.1	0	0	1	-29.999999999999996	29.999999999999996								
	199	25	0.009909	0.064003	0.01221	221.1	221.1	221.1	0	0	1	-29.999999999999996	29.999999999999996								
	28	27	0.000587	0.003964	0.0	100.0	100.0	100.0	0	0	1	-29.999999999999996	29.999999999999996								
	27	93	0.025172	0.175362	0.02867	221.1	221.1	221.1	0	0	1	-29.999999999999996	29.999999999999996								
	27	158	0.020429	0.131945	0.02517	221.1	221.1	221.1	0	0	1	-29.999999999999996	29.999999999999996								
	30	29	0.000694	0.003131	0.0	100.0	100.0	100.0	0	0	1	-29.999999999999996	29.999999999999996								
	124	29	0.005561	0.038742	0.00633	221.1	221.1	221.1	0	0	1	-29.999999999999996	29.999999999999996								
	29	140	0.007895	0.055004	0.00899	221.1	221.1	221.1	0	0	1	-29.999999999999996	29.999999999999996								
	32	31	0.000667	0.003884	0.0	100.0	100.0	100.0	0	0	1	-29.999999999999996	29.999999999999996								
	33	31	0.000528	0.003639	0.0	100.0	100.0	100.0	0	0	1	-29.999999999999996	29.999999999999996								
	177	31	0.008406	0.05856	0.00957	221.1	221.1	221.1	0	0	1	-29.999999999999996	29.999999999999996								
	192	31	0.008088	0.05525	0.0094	221.1	221.1	221.1	0	0	1	-29.999999999999996	29.999999999999996								
	35	34	0.000575	0.003674	0.0	100.0	100.0	100.0	0	0	1	-29.999999999999996	29.999999999999996								
	34	54	0.006268	0.042819	0.00729	221.1	221.1	221.1	0	0	1	-29.999999999999996	29.999999999999996								
	34	137	0.006911	0.044639	0.00852	221.1	221.1	221.1	0	0	1	-29.999999999999996	29.999999999999996								
	37	36	0.000552	0.003328	0.0	100.0	100.0	100.0	0	0	1	-29.999999999999996	29.999999999999996								
	38	36	0.00067	0.003511	0.0	100.0	100.0	100.0	0	0	1	-29.999999999999996	29.999999999999996								
	58	36	0.010889	0.07439	0.01266	221.1	221.1	221.1	0	0	1	-29.999999999999996	29.999999999999996								
	83	36	0.009615	0.066986	0.01095	221.1	221.1	221.1	0	0	1	-29.999999999999996	29.999999999999996								
	40	39	0.000505	0.003103	0.0	100.0	100.0	100.0	0	0	1	-29.999999999999996	29.999999999999996								
	39	85	0.008702	0.060625	0.00991	221.1	221.1	221.1	0	0	1	-29.999999999999996	29.999999999999996								
	159	39	0.007332	0.05108	0.00835	221.1	221.1	221.1	0	0	1	-29.999999999999996	29.999999999999996								
	41	100	0.004595	0.029676	0.00566	221.1	221.1	221.1	0	0	1	-29.999999999999996	29.999999999999996								
	41	163	0.003165	0.021623	0.00368	221.1	221.1	221.1	0	0	1	-29.999999999999996	29.999999999999996								
	41	180	0.009408	0.060766	0.01159	221.1	221.1	221.1	0	0	1	-29.999999999999996	29.999999999999996								
	44	42	0.012256	0.085383	0.01396	221.1	221.1	221.1	0	0	1	-29.999999999999996	29.999999999999996								
	181	42	0.008008	0.05579	0.00912	221.1	221.1	221.1	0	0	1	-29.999999999999996	29.999999999999996								
	43	84	0.007509	0.051295	0.00873	221.1	221.1	221.1	0	0	1	-29.999999999999996	29.999999999999996								
	43	132	0.011052	0.075503	0.01285	221.1	221.1	221.1	0	0	1	-29.999999999999996	29.999999999999996								
	44	200	0.014813	0.101195	0.01722	221.1	221.1	221.1	0	0	1	-29.999999999999996	29.999999999999996								
	46	45	0.000936	0.049195	0.0	160.0	160.0	160.0	1.0	0.0	1	-29.999999999999996	29.999999999999996								
	55	45	0.002593	0.018527	0.03378	402.36	402.36	402.36	0	0	1	-29.999999999999996	29.999999999999996								
	102	45	0.0029	0.020715	0.03777	402.36	402.36	402.36	0	0	1	-29.999999999999996	29.999999999999996								
	45	187	0.003474	0.024821	0.04525	402.36	402.36	402.36	0	0	1	-29.999999999999996	29.999999999999996								
	61	46	0.006971	0.048561	0.00794	221.1	221.1	221.1	0	0	1	-29.999999999999996	29.999999999999996								
	122	46	0.010129	0.065419	0.01248	221.1	221.1	221.1	0	0	1	-29.999999999999996	29.999999999999996								
	47	54	0.006678	0.045623	0.00776	221.1	221.1	221.1	0	0	1	-29.999999999999996	29.999999999999996								
	47	66	0.007339	0.047401	0.00904	221.1	221.1	221.1	0	0	1	-29.999999999999996	29.999999999999996								
	49	48	0.027149	0.532021	0.0	28.9	28.9	28.9	1.0	0.0	1	-29.999999999999996	29.999999999999996								
	50	48	0.021719	0.404167	0.0	28.7	28.7	28.7	1.0	0.0	1	-29.999999999999996	29.999999999999996								
	51	48	0.027149	0.612711	0.0	24.3	24.3	24.3	1.0	0.0	1	-29.999999999999996	29.999999999999996								
	52	48	0.021719	0.379817	0.0	24.3	24.3	24.3	1.0	0.0	1	-29.999999999999996	29.999999999999996								
	53	48	0.02121	0.576549	0.0	35.3	35.3	35.3	1.0	0.0	1	-29.999999999999996	29.999999999999996								
	48	74	0.007959	0.054369	0.00925	221.1	221.1	221.1	0	0	1	-29.999999999999996	29.999999999999996								
	54	66	0.007051	0.045544	0.00869	221.1	221.1	221.1	0	0	1	-29.999999999999996	29.999999999999996								
	56	55	0.005152	0.124653	0.0	160.0	160.0	160.0	1.0	0.0	1	-29.999999999999996	29.999999999999996								
	81	55	0.005467	0.039054	0.0712	402.36	402.36	402.36	0	0	1	-29.999999999999996	29.999999999999996								
	55	102	0.001246	0.008902	0.01623	402.36	402.36	402.36	0	0	1	-29.999999999999996	29.999999999999996								
	55	112	0.004166	0.029763	0.05426	402.36	402.36	402.36	0	0	1	-29.999999999999996	29.999999999999996								
	55	128	0.003415	0.024395	0.04448	402.36	402.36	402.36	0	0	1	-29.999999999999996	29.999999999999996								
	56	103	0.004282	0.02983	0.00488	221.1	221.1	221.1	0	0	1	-29.999999999999996	29.999999999999996								
	57	159	0.00752	0.051369	0.00874	221.1	221.1	221.1	0	0	1	-29.999999999999996	29.999999999999996								
	95	58	0.009836	0.063526	0.01212	221.1	221.1	221.1	0	0	1	-29.999999999999996	29.999999999999996								
	177	58	0.014049	0.095972	0.01633	221.1	221.1	221.1	0	0	1	-29.999999999999996	29.999999999999996								
	59	119	0.011209	0.072397	0.01381	221.1	221.1	221.1	0	0	1	-29.999999999999996	29.999999999999996								
	59	139	0.009665	0.062426	0.01191	221.1	221.1	221.1	0	0	1	-29.999999999999996	29.999999999999996								
	60	97	0.012274	0.079279	0.01512	221.1	221.1	221.1	0	0	1	-29.999999999999996	29.999999999999996								
	134	60	0.009007	0.062749	0.01026	221.1	221.1	221.1	0	0	1	-29.999999999999996	29.999999999999996								
	61	103	0.006539	0.045556	0.00745	221.1	221.1	221.1	0	0	1	-29.999999999999996	29.999999999999996								
	159	62	0.008634	0.058979	0.01003	221.1	221.1	221.1	0	0	1	-29.999999999999996	29.999999999999996								
	160	62	0.007628	0.053144	0.00869	221.1	221.1	221.1	0	0	1	-29.999999999999996	29.999999999999996								
	63	66	0.011949	0.083244	0.01361	221.1	221.1	221.1	0	0	1	-29.999999999999996	29.999999999999996								
	63	184	0.017963	0.116023	0.02214	221.1	221.1	221.1	0	0	1	-29.999999999999996	29.999999999999996								
	65	64	0.00128	0.10157	0.0	195.5	195.5	195.5	1.0	0.0	1	-29.999999999999996	29.999999999999996								
	67	66	0.020951	0.144786	0.0	30.0	30.0	30.0	1.0	0.0	1	-29.999999999999996	29.999999999999996								
	68	66	0.00689	0.264997	0.0	73.0	73.0	73.0	1.0	0.0	1	-29.999999999999996	29.999999999999996								
	69	66	0.00441	0.09499	0.0	70.5	70.5	70.5	1.0	0.0	1	-29.999999999999996	29.999999999999996								
	70	66	0.00689	0.199449	0.0	70.5	70.5	70.5	1.0	0.0	1	-29.999999999999996	29.999999999999996								
	71	66	0.003528	0.081544	0.0	68.0	68.0	68.0	1.0	0.0	1	-29.999999999999996	29.999999999999996								
	72	66	0.003528	0.074599	0.0	68.0	68.0	68.0	1.0	0.0	1	-29.999999999999996	29.999999999999996								
	73	66	0.00689	0.146423	0.0	65.0	65.0	65.0	1.0	0.0	1	-29.999999999999996	29.999999999999996								
	66	158	0.004993	0.032251	0.00615	221.1	221.1	221.1	0	0	1	-29.999999999999996	29.999999999999996								
	74	190	0.008894	0.06076	0.01034	221.1	221.1	221.1	0	0	1	-29.999999999999996	29.999999999999996								
	76	75	0.038464	0.784328	0.0	24.3	24.3	24.3	1.0	0.0	1	-29.999999999999996	29.999999999999996								
	77	75	0.08013	2.192105	0.0	7.400000000000001	7.400000000000001	7.400000000000001	1.0	0.0	1	-29.999999999999996	29.999999999999996								
	78	75	0.008544	0.181406	0.0	65.0	65.0	65.0	1.0	0.0	1	-29.999999999999996	29.999999999999996								
	79	75	0.01068	0.277774	0.0	62.1	62.1	62.1	1.0	0.0	1	-29.999999999999996	29.999999999999996								
	108	75	0.010988	0.070969	0.01354	221.1	221.1	221.1	0	0	1	-29.999999999999996	29.999999999999996								
	75	157	0.013487	0.087112	0.01662	221.1	221.1	221.1	0	0	1	-29.999999999999996	29.999999999999996								
	80	100	0.021463	0.149525	0.02444	221.1	221.1	221.1	0	0	1	-29.999999999999996	29.999999999999996								
	80	143	0.020594	0.14347	0.02345	221.1	221.1	221.1	0	0	1	-29.999999999999996	29.999999999999996								
	82	81	0.00097	0.042371	0.0	250.0	250.0	250.0	1.0	0.0	1	-29.999999999999996	29.999999999999996								
	81	178	0.006598	0.047137	0.08594	402.36	402.36	402.36	0	0	1	-29.999999999999996	29.999999999999996								
	82	195	0.003845	0.026265	0.00447	221.1	221.1	221.1	0	0	1	-29.999999999999996	29.999999999999996								
	83	146	0.005382	0.036767	0.00626	221.1	221.1	221.1	0	0	1	-29.999999999999996	29.999999999999996								
	83	186	0.00792	0.055174	0.00902	221.1	221.1	221.1	0	0	1	-29.999999999999996	29.999999999999996								
	84	113	0.006652	0.04544	0.00773	221.1	221.1	221.1	0	0	1	-29.999999999999996	29.999999999999996								
	85	120	0.007786	0.050291	0.00959	221.1	221.1	221.1	0	0	1	-29.999999999999996	29.999999999999996								
	86	101	0.00512	0.033072	0.00631	221.1	221.1	221.1	0	0	1	-29.999999999999996	29.999999999999996								
	142	86	0.003387	0.023141	0.00394	221.1	221.1	221.1	0	0	1	-29.999999999999996	29.999999999999996								
	86	193	0.006606	0.042664	0.00814	221.1	221.1	221.1	0	0	1	-29.999999999999996	29.999999999999996								
	88	87	0.000832	0.034189	0.0	350.0	350.0	350.0	1.0	0.0	1	-29.999999999999996	29.999999999999996								
	149	87	0.001621	0.011579	0.02111	402.36	402.36	402.36	0	0	1	-29.999999999999996	29.999999999999996								
	88	150	0.00557	0.035973	0.00686	221.1	221.1	221.1	0	0	1	-29.999999999999996	29.999999999999996								
	176	88	0.003859	0.024922	0.00475	221.1	221.1	221.1	0	0	1	-29.999999999999996	29.999999999999996								
	88	194	0.004258	0.029088	0.00495	221.1	221.1	221.1	0	0	1	-29.999999999999996	29.999999999999996								
	90	89	0.0601	2.279922	0.0	8.6	8.6	8.6	1.0	0.0	1	-29.999999999999996	29.999999999999996								
	91	89	0.024614	0.503424	0.0	32.0	32.0	32.0	1.0	0.0	1	-29.999999999999996	29.999999999999996								
	92	89	0.019539	0.36204	0.0	35.3	35.3	35.3	1.0	0.0	1	-29.999999999999996	29.999999999999996								
	89	95	0.008734	0.056409	0.01076	221.1	221.1	221.1	0	0	1	-29.999999999999996	29.999999999999996								
	188	89	0.00805	0.051996	0.00992	221.1	221.1	221.1	0	0	1	-29.999999999999996	29.999999999999996								
	94	93	0.01068	0.280602	0.0	62.1	62.1	62.1	1.0	0.0	1	-29.999999999999996	29.999999999999996								
	93	191	0.022088	0.142662	0.02722	221.1	221.1	221.1	0	0	1	-29.999999999999996	29.999999999999996								
	122	96	0.01062	0.073986	0.01209	221.1	221.1	221.1	0	0	1	-29.999999999999996	29.999999999999996								
	96	143	0.015858	0.102423	0.01954	221.1	221.1	221.1	0	0	1	-29.999999999999996	29.999999999999996								
	96	188	0.010903	0.070421	0.01343	221.1	221.1	221.1	0	0	1	-29.999999999999996	29.999999999999996								
	97	200	0.01318	0.085125	0.01624	221.1	221.1	221.1	0	0	1	-29.999999999999996	29.999999999999996								
	99	98	0.000643	0.030516	0.0	250.0	250.0	250.0	1.0	0.0	1	-29.999999999999996	29.999999999999996								
	98	123	0.0047	0.033574	0.06121	402.36	402.36	402.36	0	0	1	-29.999999999999996	29.999999999999996								
	99	142	0.007605	0.052982	0.00866	221.1	221.1	221.1	0	0	1	-29.999999999999996	29.999999999999996								
	100	174	0.010698	0.074531	0.01218	221.1	221.1	221.1	0	0	1	-29.999999999999996	29.999999999999996								
	100	179	0.007093	0.049413	0.00808	221.1	221.1	221.1	0	0	1	-29.999999999999996	29.999999999999996								
	100	184	0.012745	0.08879	0.01451	221.1	221.1	221.1	0	0	1	-29.999999999999996	29.999999999999996								
	110	101	0.00196	0.012657	0.00241	221.1	221.1	221.1	0	0	1	-29.999999999999996	29.999999999999996								
	101	117	0.005245	0.035833	0.0061	221.1	221.1	221.1	0	0	1	-29.999999999999996	29.999999999999996								
	101	141	0.003144	0.020305	0.00387	221.1	221.1	221.1	0	0	1	-29.999999999999996	29.999999999999996								
	103	102	0.001709	0.054578	0.0	250.0	250.0	250.0	1.0	0.0	1	-29.999999999999996	29.999999999999996								
	104	102	0.0021	0.087749	0.0	130.0	130.0	130.0	1.0	0.0	1	-29.999999999999996	29.999999999999996								
	105	102	0.00097	0.059419	0.0	260.0	260.0	260.0	1.0	0.0	1	-29.999999999999996	29.999999999999996								
	102	128	0.0027	0.019292	0.03517	402.36	402.36	402.36	0	0	1	-29.999999999999996	29.999999999999996								
	103	106	0.007749	0.053987	0.00883	221.1	221.1	221.1	0	0	1	-29.999999999999996	29.999999999999996								
	130	106	0.006991	0.047761	0.00813	221.1	221.1	221.1	0	0	1	-29.999999999999996	29.999999999999996								
	107	113	0.006748	0.046101	0.00784	221.1	221.1	221.1	0	0	1	-29.999999999999996	29.999999999999996								
	107	129	0.005168	0.035307	0.00601	221.1	221.1	221.1	0	0	1	-29.999999999999996	29.999999999999996								
	192	107	0.003939	0.025441	0.00485	221.1	221.1	221.1	0	0	1	-29.999999999999996	29.999999999999996								
	108	198	0.024792	0.160126	0.03055	221.1	221.1	221.1	0	0	1	-29.999999999999996	29.999999999999996								
	186	109	0.008774	0.059942	0.0102	221.1	221.1	221.1	0	0	1	-29.999999999999996	29.999999999999996								
	110	193	0.003444	0.022243	0.00424	221.1	221.1	221.1	0	0	1	-29.999999999999996	29.999999999999996								
	163	111	0.005281	0.034111	0.00651	221.1	221.1	221.1	0	0	1	-29.999999999999996	29.999999999999996								
	111	175	0.00795	0.055386	0.00905	221.1	221.1	221.1	0	0	1	-29.999999999999996	29.999999999999996								
	113	112	0.002077	0.058615	0.0	350.0	350.0	350.0	1.0	0.0	1	-29.999999999999996	29.999999999999996								
	114	112	0.06	0.434013	0.0	20.0	20.0	20.0	1.0	0.0	1	-29.999999999999996	29.999999999999996								
	115	112	0.00128	0.062771	0.0	200.0	200.0	200.0	1.0	0.0	1	-29.999999999999996	29.999999999999996								
	128	112	0.001295	0.009255	0.01687	402.36	402.36	402.36	0	0	1	-29.999999999999996	29.999999999999996								
	113	192	0.005418	0.034995	0.00668	221.1	221.1	221.1	0	0	1	-29.999999999999996	29.999999999999996								
	117	116	0.000517	0.034943	0.0	300.0	300.0	300.0	1.0	0.0	1	-29.999999999999996	29.999999999999996								
	133	116	0.00389	0.027793	0.05067	402.36	402.36	402.36	0	0	1	-29.999999999999996	29.999999999999996								
	117	132	0.011912	0.082984	0.01357	221.1	221.1	221.1	0	0	1	-29.999999999999996	29.999999999999996								
	117	162	0.01617	0.104442	0.01993	221.1	221.1	221.1	0	0	1	-29.999999999999996	29.999999999999996								
	131	118	0.00718	0.046377	0.00885	221.1	221.1	221.1	0	0	1	-29.999999999999996	29.999999999999996								
	118	134	0.011598	0.0808	0.01321	221.1	221.1	221.1	0	0	1	-29.999999999999996	29.999999999999996								
	118	198	0.009487	0.064809	0.01103	221.1	221.1	221.1	0	0	1	-29.999999999999996	29.999999999999996								
	122	121	0.000786	0.063023	0.0	200.0	200.0	200.0	1.0	0.0	1	-29.999999999999996	29.999999999999996								
	121	178	0.008903	0.063604	0.11596	402.36	402.36	402.36	0	0	1	-29.999999999999996	29.999999999999996								
	187	121	0.001063	0.007593	0.01384	402.36	402.36	402.36	0	0	1	-29.999999999999996	29.999999999999996								
	124	123	0.000329	0.017481	0.0	400.0	400.0	400.0	1.0	0.0	1	-29.999999999999996	29.999999999999996								
	125	123	0.00448	0.104562	0.0	170.0	170.0	170.0	1.0	0.0	1	-29.999999999999996	29.999999999999996								
	126	123	0.00148	0.066043	0.0	170.0	170.0	170.0	1.0	0.0	1	-29.999999999999996	29.999999999999996								
	127	123	0.001	0.031691	0.0	170.0	170.0	170.0	1.0	0.0	1	-29.999999999999996	29.999999999999996								
	123	133	0.001459	0.010423	0.019	402.36	402.36	402.36	0	0	1	-29.999999999999996	29.999999999999996								
	156	123	0.001117	0.007981	0.01455	402.36	402.36	402.36	0	0	1	-29.999999999999996	29.999999999999996								
	124	193	0.006577	0.04582	0.00749	221.1	221.1	221.1	0	0	1	-29.999999999999996	29.999999999999996								
	129	128	0.000753	0.044453	0.0	250.0	250.0	250.0	1.0	0.0	1	-29.999999999999996	29.999999999999996								
	128	133	0.009554	0.068257	0.12444	402.36	402.36	402.36	0	0	1	-29.999999999999996	29.999999999999996								
	130	144	0.022678	0.157988	0.02583	221.1	221.1	221.1	0	0	1	-29.999999999999996	29.999999999999996								
	134	133	0.0002	0.013328	0.0	400.0	400.0	400.0	1.0	0.0	1	-29.999999999999996	29.999999999999996								
	135	133	0.00043	0.033512	0.0	580.0	580.0	580.0	1.0	0.0	1	-29.999999999999996	29.999999999999996								
	136	133	0.00043	0.027478	0.0	580.0	580.0	580.0	1.0	0.0	1	-29.999999999999996	29.999999999999996								
	156	133	0.001958	0.013985	0.0255	402.36	402.36	402.36	0	0	1	-29.999999999999996	29.999999999999996								
	134	140	0.010445	0.071357	0.01214	221.1	221.1	221.1	0	0	1	-29.999999999999996	29.999999999999996								
	134	186	0.014463	0.093412	0.01782	221.1	221.1	221.1	0	0	1	-29.999999999999996	29.999999999999996								
	138	139	0.026477	0.184455	0.03015	221.1	221.1	221.1	0	0	1	-29.999999999999996	29.999999999999996								
	138	195	0.008728	0.05637	0.01075	221.1	221.1	221.1	0	0	1	-29.999999999999996	29.999999999999996								
	141	148	0.01019	0.065817	0.01256	221.1	221.1	221.1	0	0	1	-29.999999999999996	29.999999999999996								
	141	193	0.002896	0.018702	0.00357	221.1	221.1	221.1	0	0	1	-29.999999999999996	29.999999999999996								
	162	144	0.006962	0.048504	0.00793	221.1	221.1	221.1	0	0	1	-29.999999999999996	29.999999999999996								
	145	176	0.008799	0.060111	0.01023	221.1	221.1	221.1	0	0	1	-29.999999999999996	29.999999999999996								
	185	145	0.010839	0.075509	0.01234	221.1	221.1	221.1	0	0	1	-29.999999999999996	29.999999999999996								
	147	146	0.0025	0.10181	0.0	130.6	130.6	130.6	1.0	0.0	1	-29.999999999999996	29.999999999999996								
	146	177	0.011064	0.07708	0.0126	221.1	221.1	221.1	0	0	1	-29.999999999999996	29.999999999999996								
	150	149	0.000412	0.020251	0.0	400.0	400.0	400.0	1.0	0.0	1	-29.999999999999996	29.999999999999996								
	151	149	0.02267	0.625521	0.0	20.0	20.0	20.0	1.0	0.0	1	-29.999999999999996	29.999999999999996								
	152	149	0.00249	0.141687	0.0	100.0	100.0	100.0	1.0	0.0	1	-29.999999999999996	29.999999999999996								
	153	149	0.00549	0.184603	0.0	100.0	100.0	100.0	1.0	0.0	1	-29.999999999999996	29.999999999999996								
	154	149	0.00249	0.10294	0.0	100.0	100.0	100.0	1.0	0.0	1	-29.999999999999996	29.999999999999996								
	155	149	0.00249	0.099835	0.0	100.0	100.0	100.0	1.0	0.0	1	-29.999999999999996	29.999999999999996								
	185	150	0.013458	0.091934	0.01564	221.1	221.1	221.1	0	0	1	-29.999999999999996	29.999999999999996								
	194	150	0.003138	0.021435	0.00365	221.1	221.1	221.1	0	0	1	-29.999999999999996	29.999999999999996								
	157	156	0.000592	0.045654	0.0	300.0	300.0	300.0	1.0	0.0	1	-29.999999999999996	29.999999999999996								
	161	160	0.00139	0.080288	0.0	180.2	180.2	180.2	1.0	0.0	1	-29.999999999999996	29.999999999999996								
	160	181	0.004296	0.029345	0.00499	221.1	221.1	221.1	0	0	1	-29.999999999999996	29.999999999999996								
	164	163	0.008207	0.11301	0.0	58.099999999999994	58.099999999999994	58.099999999999994	1.0	0.0	1	-29.999999999999996	29.999999999999996								
	165	163	0.0074	0.301657	0.0	65.0	65.0	65.0	1.0	0.0	1	-29.999999999999996	29.999999999999996								
	166	163	0.016368	0.382075	0.0	42.0	42.0	42.0	1.0	0.0	1	-29.999999999999996	29.999999999999996								
	167	163	0.010476	0.196499	0.0	42.0	42.0	42.0	1.0	0.0	1	-29.999999999999996	29.999999999999996								
	168	163	0.018	0.490983	0.0	40.0	40.0	40.0	1.0	0.0	1	-29.999999999999996	29.999999999999996								
	169	163	0.016368	0.396417	0.0	40.0	40.0	40.0	1.0	0.0	1	-29.999999999999996	29.999999999999996								
	170	163	0.016368	0.374902	0.0	35.6	35.6	35.6	1.0	0.0	1	-29.999999999999996	29.999999999999996								
	163	179	0.00579	0.039557	0.00673	221.1	221.1	221.1	0	0	1	-29.999999999999996	29.999999999999996								
	171	190	0.009866	0.0674	0.01147	221.1	221.1	221.1	0	0	1	-29.999999999999996	29.999999999999996								
	195	171	0.011644	0.081116	0.01326	221.1	221.1	221.1	0	0	1	-29.999999999999996	29.999999999999996								
	180	172	0.015296	0.106558	0.01742	221.1	221.1	221.1	0	0	1	-29.999999999999996	29.999999999999996								
	199	172	0.024005	0.155042	0.02958	221.1	221.1	221.1	0	0	1	-29.999999999999996	29.999999999999996								
	173	174	0.015373	0.099293	0.01894	221.1	221.1	221.1	0	0	1	-29.999999999999996	29.999999999999996								
	173	175	0.008572	0.055363	0.01056	221.1	221.1	221.1	0	0	1	-29.999999999999996	29.999999999999996								
	174	188	0.017952	0.12264	0.02087	221.1	221.1	221.1	0	0	1	-29.999999999999996	29.999999999999996								
	179	178	0.000495	0.036157	0.0	250.0	250.0	250.0	1.0	0.0	1	-29.999999999999996	29.999999999999996								
	180	191	0.026393	0.183866	0.03006	221.1	221.1	221.1	0	0	1	-29.999999999999996	29.999999999999996								
	180	199	0.012185	0.078698	0.01501	221.1	221.1	221.1	0	0	1	-29.999999999999996	29.999999999999996								
	182	181	0.01099	0.297746	0.0	60.3	60.3	60.3	1.0	0.0	1	-29.999999999999996	29.999999999999996								
	183	181	0.004627	0.114254	0.0	65.0	65.0	65.0	1.0	0.0	1	-29.999999999999996	29.999999999999996								
	181	194	0.004395	0.028384	0.00542	221.1	221.1	221.1	0	0	1	-29.999999999999996	29.999999999999996								
	188	187	0.001394	0.044762	0.0	400.0	400.0	400.0	1.0	0.0	1	-29.999999999999996	29.999999999999996								
	189	187	0.0003	0.007815	0.0	740.0	740.0	740.0	1.0	0.0	1	-29.999999999999996	29.999999999999996								
	196	195	0.00285	0.060038	0.0	87.7	87.7	87.7	1.0	0.0	1	-29.999999999999996	29.999999999999996								
	197	195	0.00285	0.191484	0.0	87.7	87.7	87.7	1.0	0.0	1	-29.999999999999996	29.999999999999996								
];

%%-----  OPF Data  -----%%
%% cost data
%    1    startup    shutdown    n    x1    y1    ...    xn    yn
%    2    startup    shutdown    n    c(n-1)    ...    c0
mpc.gencost = [
	2	0.0	0.0	3	0.002	19.0	236.12
	2	0.0	0.0	3	0.002	19.0	236.12
	2	0.0	0.0	3	0.002	19.0	236.12
	2	0.0	0.0	3	0.002	19.0	236.12
	2	0.0	0.0	3	0.002	19.0	236.24
	2	0.0	0.0	3	0.0	0.0	0.0
	2	0.0	0.0	3	0.002	19.0	236.13
	2	0.0	0.0	3	0.002	19.0	236.74
	2	0.0	0.0	3	0.002	19.0	236.74
	2	0.0	0.0	3	0.002	19.0	236.74
	2	0.0	0.0	3	0.002	19.0	236.74
	2	0.0	0.0	3	0.002	19.0	236.74
	2	0.0	0.0	3	0.002	19.0	236.74
	2	0.0	0.0	3	0.002	23.157	606.0
	2	0.0	0.0	3	0.002	23.146	603.6
	2	0.0	0.0	3	0.002	23.252	627.0
	2	0.0	0.0	3	0.002	23.252	627.0
	2	0.0	0.0	3	0.002	23.152000000000005	604.8
	2	0.0	0.0	3	0.002	23.164	607.5
	2	0.0	0.0	3	0.002	23.173	609.45
	2	0.0	0.0	3	0.002	19.0	236.48
	2	0.0	0.0	3	0.0	0.0	0.0
	2	0.0	0.0	3	0.0	0.0	0.0
	2	0.0	0.0	3	0.0	0.0	0.0
	2	0.0	0.0	3	0.0	0.0	0.0
	2	0.0	0.0	3	0.002	19.0	610.14
	2	0.0	0.0	3	0.002	19.0	610.14
	2	0.0	0.0	3	0.002	19.0	610.14
	2	0.0	0.0	3	0.002	19.0	1261.33
	2	0.0	0.0	3	0.002	19.0	1261.33
	2	0.0	0.0	3	0.0	0.0	0.0
	2	0.0	0.0	3	0.002	19.0	236.14
	2	0.0	0.0	3	0.002	19.0	253.01
	2	0.0	0.0	3	0.002	19.0	253.01
	2	0.0	0.0	3	0.002	19.0	253.01
	2	0.0	0.0	3	0.002	19.0	253.01
	2	0.0	0.0	3	0.002	24.07	807.9
	2	0.0	0.0	3	0.002	23.211	618.0
	2	0.0	0.0	3	0.002	23.306	639.0
	2	0.0	0.0	3	0.002	23.194000000000003	614.1
	2	0.0	0.0	3	0.002	23.194000000000003	614.1
	2	0.0	0.0	3	0.002	23.194000000000003	614.1
	2	0.0	0.0	3	0.002	23.194000000000003	614.1
	2	0.0	0.0	3	0.002	23.194000000000003	614.1
	2	0.0	0.0	3	0.002	19.0	236.47
	2	0.0	0.0	3	0.002	19.0	236.71
	2	0.0	0.0	3	0.0	6.71	1272.13
	2	0.0	0.0	3	0.002	23.588	701.25
	2	0.0	0.0	3	0.002	23.588	701.25
];

